tests/data/power_flow/automatic-tap-regulator/achievable-voltage-above-band-any/sym_output.json
{
  "version": "1.0",
  "type": "sym_output",
  "is_batch": false,
  "attributes": {},
  "data": {
    "node": [
      {"id": 1, "energized": 1, "u_pu": 0.99999999999916234, "u": 9999.9999999916236, "u_angle": -8.3750227160426029e-12, "p": 0.084167999070335342, "q": 2.3307634428066978e-09},
      {"id": 2, "energized": 1, "u_pu": 0.91743118807262469, "u": 366.97247522904991, "u_angle": -2.6179939277492403, "p": -0, "q": 0}
    ],
    "transformer": [
      {"id": 4, "energized": 1, "loading": 8.4167999070335368e-07, "p_from": 0.084167999070335342, "q_from": 2.3307634428066978e-09, "i_from": 4.8594416920451007e-06, "s_from": 0.08416799907033537, "p_to": -0, "q_to": 0, "i_to": 0, "s_to": 0}
    ],
    "source": [
      {"id": 3, "energized": 1, "p": 0.084167999070335342, "q": 2.3307634428066978e-09, "i": 4.8594416920451007e-06, "s": 0.08416799907033537, "pf": 0.99999999999999967}
    ],
    "transformer_tap_regulator": [
      {"id": 8, "energized": 1, "tap_pos": 9}
    ]
  }
}